Circuit: * M:\Study Materials\CSE251\Labs\Lab2 Part 1 (20101299).asc


Date: Tue Feb 22 09:18:58 2022
Total elapsed time: 0.044 seconds.

tnom = 27
temp = 27
method = trap
totiter = 1210
traniter = 0
tranpoints = 0
accept = 0
rejected = 0
matrix size = 4
fillins = 0
solver = Normal
Matrix Compiler1: off  [0.0]/0.0/0.0
Matrix Compiler2:      21 opcodes  0.1/[0.0]/0.0

