Circuit: * M:\Study Materials\CSE251\Labs\Lab2 Part 2 (20101299)\Lab2 Part 2 (20101299).asc

.OP point found by inspection.

Date: Tue Feb 22 10:08:25 2022
Total elapsed time: 0.080 seconds.

tnom = 27
temp = 27
method = modified trap
totiter = 2285
traniter = 2285
tranpoints = 1092
accept = 1069
rejected = 23
matrix size = 4
fillins = 0
solver = Normal
Matrix Compiler1:       7 opcodes  0.0/[0.0]/0.0
Matrix Compiler2: 242 bytes object code size  0.0/0.0/[0.0]

